Version 4
SHEET 1 880 680
WIRE 160 -32 144 -32
WIRE 160 0 144 0
WIRE 288 0 272 0
WIRE 160 32 144 32
WIRE 288 32 272 32
WIRE 160 64 144 64
WIRE 288 64 272 64
WIRE 160 96 144 96
WIRE 288 96 272 96
WIRE 160 128 144 128
WIRE 416 176 416 160
WIRE -336 192 -336 160
WIRE -192 240 -192 208
WIRE -128 240 -128 208
WIRE -128 240 -192 240
WIRE -64 240 -64 208
WIRE -64 240 -128 240
WIRE 0 240 0 208
WIRE 0 240 -64 240
WIRE 64 240 64 208
WIRE 64 240 0 240
WIRE -64 256 -64 240
WIRE -336 288 -336 272
FLAG -336 288 0
FLAG 416 256 0
FLAG 144 -32 IN1
FLAG 144 0 IN2
FLAG 144 32 IN3
FLAG 144 64 IN4
FLAG 144 96 IN5
FLAG 144 128 IN6
FLAG -192 208 IN2
FLAG -128 208 IN3
FLAG -64 208 IN4
FLAG 0 208 IN5
FLAG 64 208 IN6
FLAG -336 160 IN1
FLAG 288 0 PIN1
FLAG 288 32 PIN2
FLAG 288 64 PIN3
FLAG 288 96 PIN4
FLAG 416 160 PIN1
FLAG -64 256 0
SYMBOL voltage -336 176 R0
WINDOW 123 0 0 Left 0
WINDOW 39 0 0 Left 0
SYMATTR InstName V1
SYMATTR Value 1
SYMBOL voltage 416 160 R0
WINDOW 123 0 0 Left 0
WINDOW 39 0 0 Left 0
SYMATTR InstName V3
SYMATTR Value PULSE(0 1 0 0 0 0.5 1)
SYMBOL Circuit2_Part2_SwitchMatrix_Basic 208 48 R0
SYMATTR InstName X1
TEXT 152 168 Left 2 !.tran 5
